Version 4
SHEET 1 944 720
WIRE 96 80 48 80
WIRE 400 80 352 80
WIRE 688 112 640 112
WIRE 96 144 -48 144
WIRE 400 144 352 144
WIRE -48 176 -48 144
WIRE 96 208 48 208
WIRE 560 208 352 208
WIRE 688 208 688 112
WIRE 688 208 640 208
WIRE 48 240 48 208
WIRE -48 272 -48 240
WIRE 96 272 -48 272
WIRE 416 272 352 272
WIRE 496 272 416 272
WIRE 688 272 688 208
WIRE 688 272 576 272
WIRE -64 320 -144 320
WIRE 48 320 -64 320
WIRE 48 384 48 320
WIRE 240 384 208 384
WIRE 416 384 416 272
WIRE 416 384 304 384
WIRE 496 384 416 384
WIRE 688 384 688 272
WIRE 688 384 560 384
WIRE 416 416 416 384
WIRE -64 448 -64 320
WIRE 48 512 48 448
WIRE 208 512 208 384
WIRE 416 512 416 480
WIRE -64 592 -64 528
FLAG -64 592 0
FLAG 48 512 0
FLAG 208 512 0
FLAG 48 240 0
FLAG -144 320 Vin
FLAG 48 80 FBack
FLAG 640 112 FBack
FLAG 400 80 Vin
FLAG 416 512 0
FLAG 416 272 Out
FLAG 400 144 Osc
SYMBOL PowerProducts\\LT1054 224 176 R0
SYMATTR InstName U1
SYMBOL polcap -64 176 R0
WINDOW 3 24 56 Left 2
SYMATTR Value 10µ
SYMATTR InstName C1
SYMATTR Description Capacitor
SYMATTR Type cap
SYMATTR SpiceLine V=16 Irms=35m Rser=0 Lser=0
SYMBOL cap 32 384 R0
SYMATTR InstName C2
SYMATTR Value 2µ
SYMBOL cap 560 368 R90
WINDOW 0 0 32 VBottom 2
WINDOW 3 32 32 VTop 2
SYMATTR InstName C3
SYMATTR Value 2n
SYMBOL polcap 240 400 R270
WINDOW 0 32 32 VTop 2
WINDOW 3 0 32 VBottom 2
SYMATTR InstName C4
SYMATTR Value 100µ
SYMATTR Description Capacitor
SYMATTR Type cap
SYMATTR SpiceLine V=10 Irms=210m Rser=0 Lser=0
SYMBOL res 656 192 R90
WINDOW 0 0 56 VBottom 2
WINDOW 3 32 56 VTop 2
SYMATTR InstName R1
SYMATTR Value 22k
SYMBOL res 592 256 R90
WINDOW 0 0 56 VBottom 2
WINDOW 3 32 56 VTop 2
SYMATTR InstName R2
SYMATTR Value 112k
SYMBOL load 432 480 R180
WINDOW 3 48 -20 Left 2
WINDOW 123 0 0 Left 0
WINDOW 39 0 0 Left 0
SYMATTR Value 25m
SYMATTR InstName I1
SYMBOL voltage -64 432 R0
WINDOW 123 0 0 Left 0
WINDOW 39 24 124 Left 2
SYMATTR SpiceLine Rser=0.1
SYMATTR InstName V2
SYMATTR Value 7
TEXT -432 616 Left 2 !.tran 0 10ms 8ms startup uic
